tests/data/power_flow/step-up-transformer-single/any-valid-tap/sym_output.json
{
  "version": "1.0",
  "type": "sym_output",
  "is_batch": false,
  "attributes": {},
  "data": {
    "node": [
      {"id": 2, "energized": 1, "u_pu": 0.9999994897958192, "u": 9999.994897958191, "u_angle": -4.976276188195561e-08, "p": 30201.87675109433, "q": 11046.68183452673},
      {"id": 4, "energized": 1, "u_pu": 0.976387253223602, "u": 390.5549012894408, "u_angle": -2.618511710996588, "p": -29999.99999999977, "q": -9999.999999999955}
    ],
    "transformer": [
      {"id": 3, "energized": 1, "loading": 0.3215870860033959, "p_from": 30201.87675109433, "q_from": 11046.68183452673, "i_from": 1.856686505546027, "s_from": 32158.70860033959, "p_to": -29999.99999999977, "q_to": -9999.999999999955, "i_to": 46.74738051738032, "s_to": 31622.77660168356}
    ],
    "sym_load": [
      {"id": 5, "energized": 1, "p": 30000, "q": 10000, "i": 46.74738051738068, "s": 31622.77660168379, "pf": 0.9486832980505139}
    ],
    "source": [
      {"id": 1, "energized": 1, "p": 30201.87675109433, "q": 11046.68183452673, "i": 1.856686505546027, "s": 32158.70860033959, "pf": 0.9391507950905532}
    ],
    "transformer_tap_regulator": [
      {"id": 6, "energized": 1, "tap_pos": 1}
    ]
  }
}